powerflow/Codes/PF_Formulation/resultados_csv/4busfrank_vlim__18_csca_ctap__bus.csv
ID_Barra,Tipo_Barra,Vm_pu,Va_graus,Pg_pu,Qg_pu,Pd_pu,Qd_pu,Slack_QLIM,Slack_VLIM
1,3,1.1000000109997918,0.0,0.5437770417713716,0.4002720672517323,0.0,0.0,0.0,0.0
2,2,1.093126878491705,-2.1128424828962005,0.12990000000000002,0.7040000099956071,0.0,0.0,0.0,0.0
3,1,0.9550370562776416,1.2088567219142037,0.0,0.0,0.5039,1.003,0.0,-0.2929289526848567
4,1,0.8999999900002538,3.996922228579816,0.0,0.0,0.0239,1.003,0.0,-0.7490343582900061
